LTspice 24.0.12 for Windows
Circuit: * C:\Users\bayra\OneDrive\Documents\LTspice\Draft12.asc
Start Time: Tue Nov 19 18:50:16 2024
solver = Normal
Maximum thread count: 20
tnom = 27
temp = 27
method = modified trap
Direct Newton iteration for .op point succeeded.
Total elapsed time: 0.103 seconds.

