LTspice 24.0.12 for Windows
Circuit: * C:\Users\bayra\OneDrive\Documents\LTspice\Draft8.asc
Start Time: Mon Oct 14 16:30:59 2024
solver = Normal
Maximum thread count: 20
tnom = 27
temp = 27
method = modified trap
Limiting rise time of source v1 to 0.01
Limiting fall time of source v1 to 0.01
.OP point found by inspection.
Total elapsed time: 0.106 seconds.

