LTspice 24.0.12 for Windows
Circuit: * C:\Users\bayra\OneDrive\Documents\LTspice\Draft3.asc
Start Time: Wed Oct  9 18:00:54 2024
solver = Normal
Maximum thread count: 20
tnom = 27
temp = 27
method = modified trap
Direct Newton iteration for .op point succeeded.
Total elapsed time: 0.065 seconds.

