LTspice 24.0.12 for Windows
Circuit: * C:\Users\bayra\OneDrive\Documents\LTspice\Draft9.asc
Start Time: Thu Oct 10 21:15:34 2024
solver = Normal
Maximum thread count: 20
tnom = 27
temp = 27
method = modified trap
Limiting rise time of source v1 to 0.01
Limiting fall time of source v1 to 0.01
.OP point found by inspection.
Total elapsed time: 0.111 seconds.

